13

O	 2.6884949	0.0000000	0.0000000
O	-2.6884949	0.0000000	0.0000000
C	 1.4529083	0.000	0.0000000
C	-1.4529083	-0.000	-0.0000000
C	 0.6690595	-0.00	-1.254776
C	 0.6690595	0.00	 1.254776
C	-0.6690595	-0.00	-1.254776
C	-0.6690595	0.00	 1.254776
H	 1.2578352	-0.00	-2.18723
H	 1.2578352	0.00	 2.18723
H	-1.2578352	-0.00	-2.18723
H	-1.2578352	0.00	 2.18723
