12

C          1.96730        0.92730        0.88050
C          2.95860        1.65850        1.39650
C          4.42180        1.33660        1.28690
C          0.50400        1.24890        0.99050
H          2.21900        0.01800        0.33050
H          2.70690        2.56790        1.94640
H          4.58920        0.41520        0.71850
H          4.97360        2.14600        0.78930
H          4.87910        1.21040        2.27800
H          0.04570        1.37150       -0.00050
H         -0.04690        0.44090        1.49140
H          0.33680        2.17210        1.55600
