9

C          0.99900        2.00840        1.02890
C          1.98930        2.09080        2.16300
C          1.37950        0.76320        1.78940
H          0.00580        2.42100        1.18370
H          1.36990        2.12350        0.01410
H          3.03450        2.26200        1.92030
H          1.67030        2.55940        3.09000
H          2.00940        0.03060        1.29250
H          0.64530        0.32820        2.46200
