95

O	-1.8118992	-4.4610912	-3.9082901
O	-1.4923276	-8.1422410	-3.6464279
C	-0.5385296	-4.5556477	-4.3315318
C	-0.0753829	-3.6750027	-5.3168085
C	1.2412792	-3.7352723	-5.7574421
C	2.1231368	-4.6775648	-5.2187635
C	3.4510338	-4.7244495	-5.6648763
C	4.3377288	-5.6610390	-5.1348454
C	3.9082110	-6.5604243	-4.1585219
C	2.5878321	-6.5292234	-3.7036297
C	1.6754378	-5.5848830	-4.2238605
C	0.3280827	-5.5250250	-3.7806590
C	-0.1701820	-6.4801445	-2.7480521
C	-0.8201520	-7.6579456	-3.1638363
C	-1.2550971	-8.5981175	-2.2181685
C	-1.0350003	-8.3861779	-0.8585666
C	-0.3804542	-7.2270830	-0.4234420
C	-0.1487966	-7.0220866	0.9450049
C	0.5016511	-5.8667626	1.3809896
C	0.9229606	-4.9071948	0.4590386
C	0.7039277	-5.0981825	-0.9062958
C	0.0530114	-6.2588251	-1.3674375
H	-0.7424436	-2.9346779	-5.7409356
H	1.5753139	-3.0412618	-6.5191502
H	3.7990053	-4.0338944	-6.4234583
H	5.3614176	-5.6889975	-5.4835089
H	4.6015122	-7.2854159	-3.7525711
H	2.2877075	-7.2421288	-2.9460337
H	-1.7579362	-9.5023403	-2.5388785
H	-1.3730577	-9.1290034	-0.1445543
H	-0.4715208	-7.7564068	1.6740179
H	0.6788623	-5.7136401	2.4370872
H	1.4241236	-4.0123732	0.8015332
H	1.0424061	-4.3369630	-1.5964719
H	-2.4258446	-3.8147673	-4.2868650
H	-1.3966702	-8.7061354	-4.7971047
Cl        -4.99927       -2.95531       -4.24899
O         -3.82684       -7.09414       -3.35710
N         -6.41609       -7.72001       -4.60414
N         -2.39481      -10.61956       -0.22049
C         -7.74353       -8.36062       -4.87792
C         -8.42277       -8.81090       -3.55350
C         -7.77400       -8.04130       -2.37996
C         -6.32325       -8.53034       -2.21630
C         -5.67111       -8.62122       -3.62862
C         -7.71964       -6.54461       -2.75848
C         -6.70442       -6.39012       -3.95274
C         -7.49760       -5.68265       -1.51775
C         -6.50750       -4.79914       -1.32992
C         -5.65060       -7.57432       -5.88360
C         -6.30807       -6.71220       -6.93925
C         -7.09361       -7.25728       -7.89438
C         -7.69900       -6.39684       -8.93799
C         -7.46042       -5.07343       -8.94522
C         -6.58916       -4.47313       -7.90968
C         -6.03973       -5.24886       -6.96658
C         -4.11508       -8.45921       -3.54995
C         -3.48431       -9.27266       -2.41027
C         -3.41262      -10.69647       -2.40753
C         -3.85703      -11.49481       -3.48557
C         -3.76476      -12.89018       -3.41666
C         -3.22921      -13.50799       -2.28664
C         -2.77309      -12.73880       -1.21958
C         -2.85602      -11.34517       -1.27204
C         -2.43970       -9.26905       -0.21372
C         -2.97511       -8.58096       -1.29199
H         -8.40215       -7.61151       -5.37680
H         -7.67938       -9.22998       -5.56884
H         -9.51797       -8.64046       -3.63195
H         -8.26016       -9.89597       -3.37076
H         -8.35353       -8.20550       -1.44538
H         -6.25926       -9.52540       -1.72402
H         -5.79317       -7.80412       -1.55946
H         -8.74064       -6.28519       -3.11875
H         -5.75441       -5.95091       -3.63779
H         -7.14415       -5.64378       -4.64450
H         -8.21211       -5.80398       -0.70803
H         -5.74533       -4.59608       -2.06191
H         -6.45767       -4.25091       -0.39478
H         -7.28602       -8.32488       -7.90471
H         -8.33086       -6.83936       -9.69961
H         -7.89915       -4.44427       -9.71183
H         -6.39107       -3.40499       -7.91742
H         -5.39546       -4.80950       -6.21576
H         -3.66362       -8.79076       -4.51381
H         -4.26301      -11.06008       -4.38500
H         -4.10829      -13.49578       -4.24435
H         -3.16025      -14.58754       -2.23885
H         -2.35175      -13.22496       -0.34767
H         -2.06931       -8.72280        0.64115
H         -3.00856       -7.50387       -1.23581
H         -3.06626       -6.85426       -3.93922
H         -5.85102       -9.66864       -3.96776
H         -4.65657       -7.11613       -5.70929
H         -5.43033       -8.57678       -6.31519
