24

C         -0.66960       -1.26620        0.10530
C         -2.08760       -0.81920       -0.01700
C          0.38760       -0.21370        0.09440
O         -0.38360       -2.45430        0.20840
C         -1.35880        1.59800       -0.14750
C          0.05920        1.15100       -0.02560
O         -1.64470        2.78610       -0.25120
C         -2.41600        0.54560       -0.13700
C         -3.10530       -1.78010       -0.01080
C          1.07700        2.11190       -0.03210
C         -3.75730        0.92950       -0.24920
C          1.72890       -0.59770        0.20630
C         -4.43700       -1.38920       -0.12280
C         -4.76330       -0.03300       -0.24220
C          2.73500        0.36480        0.19890
C          2.40870        1.72100        0.07960
H         -2.82670       -2.82460        0.08330
H          0.79840        3.15640       -0.12620
H         -3.98410        1.98670       -0.34100
H          1.95570       -1.65490        0.29810
H         -5.22360       -2.13870       -0.11740
H         -5.80310        0.26980       -0.32980
H          3.77480        0.06200        0.28630
H          3.19530        2.47050        0.07390
